
**** 03/07/18 09:36:52 ******* PSpice Lite (March 2016) ******* ID# 10813 ****

 *********************************************


 ****     CIRCUIT DESCRIPTION


******************************************************************************



* Filename: mar7p2.cir
* Author: larsonma@msoe.edu <Mitchell Larson>
* Data: 7 march 2018
* Provides:
* - a time based transient simulation of a 
* - typical EE2060 circuit
*********************************************

V1 1 0 SIN(0,120,60)
R1 1 2 100
R2 2 0 1000
R3 2 3 600
C1 3 0 2N
RL 3 0 200

*** COMMAND SPICE TO DO TRANSIENT SIMULATION

*DR M DOES 1/10 TO 1/100 OF BASE UNIT AS STEP
.TRAN 0.01M 34M
.PROBE
.END

**** 03/07/18 09:36:52 ******* PSpice Lite (March 2016) ******* ID# 10813 ****

 *********************************************


 ****     INITIAL TRANSIENT SOLUTION       TEMPERATURE =   27.000 DEG C


******************************************************************************



 NODE   VOLTAGE     NODE   VOLTAGE     NODE   VOLTAGE     NODE   VOLTAGE


(    1)    0.0000  (    2)    0.0000  (    3)    0.0000  




    VOLTAGE SOURCE CURRENTS
    NAME         CURRENT

    V1           0.000E+00

    TOTAL POWER DISSIPATION   0.00E+00  WATTS



          JOB CONCLUDED

**** 03/07/18 09:36:52 ******* PSpice Lite (March 2016) ******* ID# 10813 ****

 *********************************************


 ****     JOB STATISTICS SUMMARY


******************************************************************************



  Total job time (using Solver 1)   =         .03
